


 59 61  0  0  0  0  0  0  0  0999 V2000
   -5.8568  -17.5684  -15.6175 P   0  0  0  0  0  0  0  0  0  0  0  0
   -4.9603  -18.7841  -15.5127 O   0  0  0  0  0  0  0  0  0  0  0  0
   -6.0299  -16.8854  -14.0738 O   0  0  0  0  0  0  0  0  0  0  0  0
   -6.9743  -17.0522  -13.8201 H   0  0  0  0  0  0  0  0  0  0  0  0
   -7.3876  -18.0022  -16.2514 O   0  0  0  0  0  0  0  0  0  0  0  0
   -8.2334  -18.3915  -15.1913 C   0  0  0  0  0  0  0  0  0  0  0  0
   -9.6430  -17.8288  -15.4039 C   0  0  0  0  0  0  0  0  0  0  0  0
   -9.5799  -16.5287  -15.9339 O   0  0  0  0  0  0  0  0  0  0  0  0
  -10.7731  -16.3191  -16.6622 C   0  0  0  0  0  0  0  0  0  0  0  0
  -11.5075  -17.6602  -16.8248 C   0  0  0  0  0  0  0  0  0  0  0  0
  -12.6603  -17.6884  -16.0211 O   0  0  0  0  0  0  0  0  0  0  0  0
  -10.4937  -18.6763  -16.3409 C   0  0  0  0  0  0  0  0  0  0  0  0
  -13.3416  -17.1351  -16.4849 H   0  0  0  0  0  0  0  0  0  0  0  0
  -10.4680  -15.7446  -17.9772 N   0  0  0  0  0  0  0  0  0  0  0  0
   -9.4092  -15.9999  -18.7891 C   0  0  0  0  0  0  0  0  0  0  0  0
   -9.4350  -15.2916  -19.9538 N   0  0  0  0  0  0  0  0  0  0  0  0
  -10.5633  -14.5678  -19.8346 C   0  0  0  0  0  0  0  0  0  0  0  0
  -11.1097  -13.6251  -20.7005 C   0  0  0  0  0  0  0  0  0  0  0  0
  -10.5019  -13.3176  -21.9539 N   0  0  0  0  0  0  0  0  0  0  0  0
  -12.2554  -12.9915  -20.3091 N   0  0  0  0  0  0  0  0  0  0  0  0
  -12.8489  -13.2690  -19.1023 C   0  0  0  0  0  0  0  0  0  0  0  0
  -12.3040  -14.1961  -18.2579 N   0  0  0  0  0  0  0  0  0  0  0  0
  -11.1738  -14.8332  -18.6578 C   0  0  0  0  0  0  0  0  0  0  0  0
   -9.6313  -13.8054  -22.2619 H   0  0  0  0  0  0  0  0  0  0  0  0
  -10.9227  -12.5940  -22.5789 H   0  0  0  0  0  0  0  0  0  0  0  0
  -11.0852  -19.7396  -15.6180 O   0  0  0  0  0  0  0  0  0  0  0  0
  -10.7188  -21.2293  -16.3701 P   0  0  0  0  0  0  0  0  0  0  0  0
  -10.8399  -21.0525  -17.8644 O   0  0  0  0  0  0  0  0  0  0  0  0
  -11.8233  -22.4246  -15.8831 O   0  0  0  0  0  0  0  0  0  0  0  0
   -9.1242  -21.6925  -16.0172 O   0  0  0  0  0  0  0  0  0  0  0  0
  -11.3776  -22.9107  -15.1474 H   0  0  0  0  0  0  0  0  0  0  0  0
   -9.1807  -22.2236  -15.1850 H   0  0  0  0  0  0  0  0  0  0  0  0
   -5.1196  -16.4514  -16.6698 O   0  0  0  0  0  0  0  0  0  0  0  0
   -5.6967  -14.8885  -16.2952 P   0  0  0  0  0  0  0  0  0  0  0  0
   -5.5011  -13.9306  -17.4542 O   0  0  0  0  0  0  0  0  0  0  0  0
   -7.3475  -14.9936  -15.9256 O   0  0  0  0  0  0  0  0  0  0  0  0
   -7.7445  -14.1372  -16.2262 H   0  0  0  0  0  0  0  0  0  0  0  0
   -4.8527  -14.3713  -14.8948 O   0  0  0  0  0  0  0  0  0  0  0  0
   -3.4505  -14.4803  -15.0536 C   0  0  0  0  0  0  0  0  0  0  0  0
   -1.7349  -12.9188  -14.0150 C   0  0  0  0  0  0  0  0  0  0  0  0
   -2.7758  -13.0777  -15.1514 C   0  0  0  0  0  0  0  0  0  0  0  0
   -3.8595  -11.9838  -14.9848 C   0  0  0  0  0  0  0  0  0  0  0  0
   -2.0600  -12.9655  -16.5404 C   0  0  0  0  0  0  0  0  0  0  0  0
   -3.0039  -12.7477  -17.5612 O   0  0  0  0  0  0  0  0  0  0  0  0
   -2.5552  -12.9575  -18.4226 H   0  0  0  0  0  0  0  0  0  0  0  0
   -1.0069  -11.8827  -16.5791 C   0  0  0  0  0  0  0  0  0  0  0  0
    0.2065  -12.2047  -16.4307 O   0  0  0  0  0  0  0  0  0  0  0  0
   -1.3716  -10.5061  -16.7668 N   0  0  0  0  0  0  0  0  0  0  0  0
   -2.3470  -10.2673  -17.0434 H   0  0  0  0  0  0  0  0  0  0  0  0
   -0.4113   -9.4181  -16.5973 C   0  0  0  0  0  0  0  0  0  0  0  0
   -0.4092   -8.9296  -15.1457 C   0  0  0  0  0  0  0  0  0  0  0  0
   -1.1173   -7.6157  -15.0135 C   0  0  0  0  0  0  0  0  0  0  0  0
   -0.9004   -6.7049  -15.8561 O   0  0  0  0  0  0  0  0  0  0  0  0
   -2.0560   -7.4099  -13.9497 N   0  0  0  0  0  0  0  0  0  0  0  0
   -2.3797   -8.2406  -13.4008 H   0  0  0  0  0  0  0  0  0  0  0  0
   -2.3622   -6.0816  -13.4216 C   0  0  0  0  0  0  0  0  0  0  0  0
   -1.9776   -6.0019  -11.9470 C   0  0  0  0  0  0  0  0  0  0  0  0
   -0.2358   -6.4854  -11.7184 S   0  0  0  0  0  0  0  0  0  0  0  0
   -0.4948   -7.8349  -12.0429 H   0  0  0  0  0  0  0  0  0  0  0  0
 40 41  1  0  0  0
 41 42  1  0  0  0
 41 39  1  0  0  0
 41 43  1  0  0  0
 39 38  1  0  0  0
 38 34  1  0  0  0
 34 35  2  0  0  0
 34 36  1  0  0  0
 34 33  1  0  0  0
 36 37  1  0  0  0
 33  1  1  0  0  0
  1  2  2  0  0  0
  1  3  1  0  0  0
  1  5  1  0  0  0
  3  4  1  0  0  0
  5  6  1  0  0  0
  6  7  1  0  0  0
  7  8  1  0  0  0
  7 12  1  0  0  0
  8  9  1  0  0  0
  9 14  1  0  0  0
  9 10  1  0  0  0
 14 15  1  0  0  0
 14 23  1  0  0  0
 15 16  2  0  0  0
 16 17  1  0  0  0
 17 18  2  0  0  0
 17 23  1  0  0  0
 18 19  1  0  0  0
 18 20  1  0  0  0
 19 24  1  0  0  0
 19 25  1  0  0  0
 20 21  2  0  0  0
 21 22  1  0  0  0
 22 23  2  0  0  0
 10 11  1  0  0  0
 10 12  1  0  0  0
 11 13  1  0  0  0
 12 26  1  0  0  0
 26 27  1  0  0  0
 27 28  2  0  0  0
 27 29  1  0  0  0
 27 30  1  0  0  0
 29 31  1  0  0  0
 30 32  1  0  0  0
 43 44  1  0  0  0
 43 46  1  0  0  0
 44 45  1  0  0  0
 46 47  2  0  0  0
 46 48  1  0  0  0
 48 50  1  0  0  0
 48 49  1  0  0  0
 50 51  1  0  0  0
 51 52  1  0  0  0
 52 53  2  0  0  0
 52 54  1  0  0  0
 54 56  1  0  0  0
 54 55  1  0  0  0
 56 57  1  0  0  0
 57 58  1  0  0  0
 58 59  1  0  0  0
M  END
> <minimizedAffinity>
-8.51614

> <CNNscore>
0.3552705944

> <CNNaffinity>
6.1374535561

> <CNN_VS>
2.1804568768

> <CNNaffinity_variance>
0.4309777617

$$$$



 59 61  0  0  0  0  0  0  0  0999 V2000
   -5.2234   23.6332   -0.1467 P   0  0  0  0  0  0  0  0  0  0  0  0
   -6.4125   23.5890    0.7894 O   0  0  0  0  0  0  0  0  0  0  0  0
   -4.0946   24.7456    0.4597 O   0  0  0  0  0  0  0  0  0  0  0  0
   -4.1073   25.5038   -0.1799 H   0  0  0  0  0  0  0  0  0  0  0  0
   -5.7154   24.0845   -1.7239 O   0  0  0  0  0  0  0  0  0  0  0  0
   -6.3139   25.3612   -1.6738 C   0  0  0  0  0  0  0  0  0  0  0  0
   -5.5863   26.3252   -2.6172 C   0  0  0  0  0  0  0  0  0  0  0  0
   -4.4075   26.8035   -2.0198 O   0  0  0  0  0  0  0  0  0  0  0  0
   -3.5169   27.1349   -3.0662 C   0  0  0  0  0  0  0  0  0  0  0  0
   -4.0655   26.5795   -4.3909 C   0  0  0  0  0  0  0  0  0  0  0  0
   -4.5314   27.6260   -5.2056 O   0  0  0  0  0  0  0  0  0  0  0  0
   -5.2124   25.6931   -3.9516 C   0  0  0  0  0  0  0  0  0  0  0  0
   -3.7279   28.0601   -5.5948 H   0  0  0  0  0  0  0  0  0  0  0  0
   -2.1875   26.5773   -2.7936 N   0  0  0  0  0  0  0  0  0  0  0  0
   -1.8501   25.5563   -1.9635 C   0  0  0  0  0  0  0  0  0  0  0  0
   -0.5136   25.2871   -1.9494 N   0  0  0  0  0  0  0  0  0  0  0  0
   -0.0199   26.1964   -2.8099 C   0  0  0  0  0  0  0  0  0  0  0  0
    1.2976   26.4385   -3.1876 C   0  0  0  0  0  0  0  0  0  0  0  0
    2.3767   25.6482   -2.6917 N   0  0  0  0  0  0  0  0  0  0  0  0
    1.5313   27.4698   -4.0531 N   0  0  0  0  0  0  0  0  0  0  0  0
    0.5054   28.2460   -4.5334 C   0  0  0  0  0  0  0  0  0  0  0  0
   -0.7855   28.0011   -4.1557 N   0  0  0  0  0  0  0  0  0  0  0  0
   -1.0140   26.9662   -3.3071 C   0  0  0  0  0  0  0  0  0  0  0  0
    2.2027   24.8530   -2.0372 H   0  0  0  0  0  0  0  0  0  0  0  0
    3.3587   25.8604   -2.9777 H   0  0  0  0  0  0  0  0  0  0  0  0
   -6.3183   25.7500   -4.8332 O   0  0  0  0  0  0  0  0  0  0  0  0
   -6.2791   24.4180   -5.9024 P   0  0  0  0  0  0  0  0  0  0  0  0
   -5.5147   24.8212   -7.1401 O   0  0  0  0  0  0  0  0  0  0  0  0
   -7.8553   23.9860   -6.3660 O   0  0  0  0  0  0  0  0  0  0  0  0
   -5.4742   23.1074   -5.1838 O   0  0  0  0  0  0  0  0  0  0  0  0
   -8.1127   23.2452   -5.7650 H   0  0  0  0  0  0  0  0  0  0  0  0
   -6.1736   22.5960   -4.7074 H   0  0  0  0  0  0  0  0  0  0  0  0
   -4.5342   22.0776   -0.2071 O   0  0  0  0  0  0  0  0  0  0  0  0
   -3.7243   21.7838    1.2673 P   0  0  0  0  0  0  0  0  0  0  0  0
   -2.2876   22.2660    1.2185 O   0  0  0  0  0  0  0  0  0  0  0  0
   -4.5467   22.5931    2.5089 O   0  0  0  0  0  0  0  0  0  0  0  0
   -3.8520   22.8523    3.1658 H   0  0  0  0  0  0  0  0  0  0  0  0
   -3.8180   20.0960    1.5561 O   0  0  0  0  0  0  0  0  0  0  0  0
   -4.6730   19.4493    0.6320 C   0  0  0  0  0  0  0  0  0  0  0  0
   -5.3762   18.4728    2.8708 C   0  0  0  0  0  0  0  0  0  0  0  0
   -5.6821   18.5035    1.3524 C   0  0  0  0  0  0  0  0  0  0  0  0
   -5.5220   17.0703    0.7874 C   0  0  0  0  0  0  0  0  0  0  0  0
   -7.1313   19.0509    1.1184 C   0  0  0  0  0  0  0  0  0  0  0  0
   -7.4254   19.0847   -0.2573 O   0  0  0  0  0  0  0  0  0  0  0  0
   -8.2134   19.6790   -0.3723 H   0  0  0  0  0  0  0  0  0  0  0  0
   -8.1901   18.2571    1.8477 C   0  0  0  0  0  0  0  0  0  0  0  0
   -8.6664   18.7181    2.9241 O   0  0  0  0  0  0  0  0  0  0  0  0
   -8.6429   16.9919    1.3403 N   0  0  0  0  0  0  0  0  0  0  0  0
   -8.3648   16.6949    0.3815 H   0  0  0  0  0  0  0  0  0  0  0  0
   -9.5007   16.1038    2.1215 C   0  0  0  0  0  0  0  0  0  0  0  0
   -8.8300   14.7390    2.3043 C   0  0  0  0  0  0  0  0  0  0  0  0
   -8.7804   13.9806    1.0129 C   0  0  0  0  0  0  0  0  0  0  0  0
   -9.8513   13.7212    0.4027 O   0  0  0  0  0  0  0  0  0  0  0  0
   -7.5183   13.5787    0.4644 N   0  0  0  0  0  0  0  0  0  0  0  0
   -6.6440   13.9893    0.8684 H   0  0  0  0  0  0  0  0  0  0  0  0
   -7.3831   12.4295   -0.4289 C   0  0  0  0  0  0  0  0  0  0  0  0
   -7.3926   11.1342    0.3778 C   0  0  0  0  0  0  0  0  0  0  0  0
   -5.6933   10.5205    0.6128 S   0  0  0  0  0  0  0  0  0  0  0  0
   -5.5460   10.1976   -0.7538 H   0  0  0  0  0  0  0  0  0  0  0  0
 40 41  1  0  0  0
 41 42  1  0  0  0
 41 39  1  0  0  0
 41 43  1  0  0  0
 39 38  1  0  0  0
 38 34  1  0  0  0
 34 35  2  0  0  0
 34 36  1  0  0  0
 34 33  1  0  0  0
 36 37  1  0  0  0
 33  1  1  0  0  0
  1  2  2  0  0  0
  1  3  1  0  0  0
  1  5  1  0  0  0
  3  4  1  0  0  0
  5  6  1  0  0  0
  6  7  1  0  0  0
  7  8  1  0  0  0
  7 12  1  0  0  0
  8  9  1  0  0  0
  9 14  1  0  0  0
  9 10  1  0  0  0
 14 15  1  0  0  0
 14 23  1  0  0  0
 15 16  2  0  0  0
 16 17  1  0  0  0
 17 18  2  0  0  0
 17 23  1  0  0  0
 18 19  1  0  0  0
 18 20  1  0  0  0
 19 24  1  0  0  0
 19 25  1  0  0  0
 20 21  2  0  0  0
 21 22  1  0  0  0
 22 23  2  0  0  0
 10 11  1  0  0  0
 10 12  1  0  0  0
 11 13  1  0  0  0
 12 26  1  0  0  0
 26 27  1  0  0  0
 27 28  2  0  0  0
 27 29  1  0  0  0
 27 30  1  0  0  0
 29 31  1  0  0  0
 30 32  1  0  0  0
 43 44  1  0  0  0
 43 46  1  0  0  0
 44 45  1  0  0  0
 46 47  2  0  0  0
 46 48  1  0  0  0
 48 50  1  0  0  0
 48 49  1  0  0  0
 50 51  1  0  0  0
 51 52  1  0  0  0
 52 53  2  0  0  0
 52 54  1  0  0  0
 54 56  1  0  0  0
 54 55  1  0  0  0
 56 57  1  0  0  0
 57 58  1  0  0  0
 58 59  1  0  0  0
M  END
> <minimizedAffinity>
-7.64782

> <CNNscore>
0.2905343175

> <CNNaffinity>
5.9276366234

> <CNN_VS>
1.7221819162

> <CNNaffinity_variance>
0.2445456684

$$$$



 59 61  0  0  0  0  0  0  0  0999 V2000
   -3.5928   24.9095   -0.1996 P   0  0  0  0  0  0  0  0  0  0  0  0
   -5.0960   25.0900   -0.2158 O   0  0  0  0  0  0  0  0  0  0  0  0
   -2.9762   25.6085    1.2184 O   0  0  0  0  0  0  0  0  0  0  0  0
   -2.4667   26.4041    0.9158 H   0  0  0  0  0  0  0  0  0  0  0  0
   -2.8842   25.6372   -1.5786 O   0  0  0  0  0  0  0  0  0  0  0  0
   -3.1396   27.0246   -1.5518 C   0  0  0  0  0  0  0  0  0  0  0  0
   -1.8282   27.8075   -1.6780 C   0  0  0  0  0  0  0  0  0  0  0  0
   -1.7680   28.8269   -0.7124 O   0  0  0  0  0  0  0  0  0  0  0  0
   -0.4004   29.0743   -0.4547 C   0  0  0  0  0  0  0  0  0  0  0  0
    0.4435   27.9599   -1.0952 C   0  0  0  0  0  0  0  0  0  0  0  0
    1.1386   28.4527   -2.2132 O   0  0  0  0  0  0  0  0  0  0  0  0
   -0.5896   26.9358   -1.5170 C   0  0  0  0  0  0  0  0  0  0  0  0
    1.9033   28.9787   -1.8610 H   0  0  0  0  0  0  0  0  0  0  0  0
   -0.1602   29.1254    0.9918 N   0  0  0  0  0  0  0  0  0  0  0  0
   -1.0200   29.4791    1.9822 C   0  0  0  0  0  0  0  0  0  0  0  0
   -0.4707   29.4104    3.2281 N   0  0  0  0  0  0  0  0  0  0  0  0
    0.7860   29.0008    2.9750 C   0  0  0  0  0  0  0  0  0  0  0  0
    1.8425   28.7800    3.8537 C   0  0  0  0  0  0  0  0  0  0  0  0
    1.6899   28.9363    5.2634 N   0  0  0  0  0  0  0  0  0  0  0  0
    3.0452   28.4099    3.3211 N   0  0  0  0  0  0  0  0  0  0  0  0
    3.2119   28.2633    1.9660 C   0  0  0  0  0  0  0  0  0  0  0  0
    2.1683   28.4835    1.1107 N   0  0  0  0  0  0  0  0  0  0  0  0
    0.9717   28.8369    1.6459 C   0  0  0  0  0  0  0  0  0  0  0  0
    0.7705   29.2101    5.6764 H   0  0  0  0  0  0  0  0  0  0  0  0
    2.5028   28.7805    5.9008 H   0  0  0  0  0  0  0  0  0  0  0  0
   -0.2771   26.3180   -2.7515 O   0  0  0  0  0  0  0  0  0  0  0  0
    0.7654   24.9898   -2.4900 P   0  0  0  0  0  0  0  0  0  0  0  0
    0.4204   24.3665   -1.1591 O   0  0  0  0  0  0  0  0  0  0  0  0
    2.3816   25.5097   -2.4327 O   0  0  0  0  0  0  0  0  0  0  0  0
    0.5442   23.8186   -3.6987 O   0  0  0  0  0  0  0  0  0  0  0  0
    2.7388   25.3595   -3.3416 H   0  0  0  0  0  0  0  0  0  0  0  0
    1.1737   24.0616   -4.4215 H   0  0  0  0  0  0  0  0  0  0  0  0
   -3.2559   23.2408   -0.2211 O   0  0  0  0  0  0  0  0  0  0  0  0
   -3.3400   22.6482    1.3783 P   0  0  0  0  0  0  0  0  0  0  0  0
   -2.0656   22.9385    2.1468 O   0  0  0  0  0  0  0  0  0  0  0  0
   -4.6493   23.3858    2.1622 O   0  0  0  0  0  0  0  0  0  0  0  0
   -4.3842   23.4609    3.1138 H   0  0  0  0  0  0  0  0  0  0  0  0
   -3.6447   20.9643    1.2672 O   0  0  0  0  0  0  0  0  0  0  0  0
   -4.7155   20.6789    0.3867 C   0  0  0  0  0  0  0  0  0  0  0  0
   -5.0650   18.1665    0.5483 C   0  0  0  0  0  0  0  0  0  0  0  0
   -5.6332   19.5507    0.9499 C   0  0  0  0  0  0  0  0  0  0  0  0
   -7.0486   19.6996    0.3391 C   0  0  0  0  0  0  0  0  0  0  0  0
   -5.6695   19.6719    2.5115 C   0  0  0  0  0  0  0  0  0  0  0  0
   -6.2549   20.8931    2.8940 O   0  0  0  0  0  0  0  0  0  0  0  0
   -6.0103   21.0483    3.8445 H   0  0  0  0  0  0  0  0  0  0  0  0
   -6.3952   18.5266    3.1784 C   0  0  0  0  0  0  0  0  0  0  0  0
   -5.7181   17.6120    3.7290 O   0  0  0  0  0  0  0  0  0  0  0  0
   -7.8301   18.4636    3.1789 N   0  0  0  0  0  0  0  0  0  0  0  0
   -8.3797   19.2909    2.8652 H   0  0  0  0  0  0  0  0  0  0  0  0
   -8.5553   17.2751    3.6220 C   0  0  0  0  0  0  0  0  0  0  0  0
   -9.4910   16.7778    2.5161 C   0  0  0  0  0  0  0  0  0  0  0  0
   -8.7421   15.9918    1.4833 C   0  0  0  0  0  0  0  0  0  0  0  0
   -8.2953   16.5758    0.4607 O   0  0  0  0  0  0  0  0  0  0  0  0
   -8.5135   14.5895    1.6748 N   0  0  0  0  0  0  0  0  0  0  0  0
   -8.6986   14.1771    2.6192 H   0  0  0  0  0  0  0  0  0  0  0  0
   -8.3064   13.6702    0.5574 C   0  0  0  0  0  0  0  0  0  0  0  0
   -7.5483   12.4329    1.0296 C   0  0  0  0  0  0  0  0  0  0  0  0
   -6.8417   11.5403   -0.3930 S   0  0  0  0  0  0  0  0  0  0  0  0
   -8.1116   11.1377   -0.8606 H   0  0  0  0  0  0  0  0  0  0  0  0
 40 41  1  0  0  0
 41 42  1  0  0  0
 41 39  1  0  0  0
 41 43  1  0  0  0
 39 38  1  0  0  0
 38 34  1  0  0  0
 34 35  2  0  0  0
 34 36  1  0  0  0
 34 33  1  0  0  0
 36 37  1  0  0  0
 33  1  1  0  0  0
  1  2  2  0  0  0
  1  3  1  0  0  0
  1  5  1  0  0  0
  3  4  1  0  0  0
  5  6  1  0  0  0
  6  7  1  0  0  0
  7  8  1  0  0  0
  7 12  1  0  0  0
  8  9  1  0  0  0
  9 14  1  0  0  0
  9 10  1  0  0  0
 14 15  1  0  0  0
 14 23  1  0  0  0
 15 16  2  0  0  0
 16 17  1  0  0  0
 17 18  2  0  0  0
 17 23  1  0  0  0
 18 19  1  0  0  0
 18 20  1  0  0  0
 19 24  1  0  0  0
 19 25  1  0  0  0
 20 21  2  0  0  0
 21 22  1  0  0  0
 22 23  2  0  0  0
 10 11  1  0  0  0
 10 12  1  0  0  0
 11 13  1  0  0  0
 12 26  1  0  0  0
 26 27  1  0  0  0
 27 28  2  0  0  0
 27 29  1  0  0  0
 27 30  1  0  0  0
 29 31  1  0  0  0
 30 32  1  0  0  0
 43 44  1  0  0  0
 43 46  1  0  0  0
 44 45  1  0  0  0
 46 47  2  0  0  0
 46 48  1  0  0  0
 48 50  1  0  0  0
 48 49  1  0  0  0
 50 51  1  0  0  0
 51 52  1  0  0  0
 52 53  2  0  0  0
 52 54  1  0  0  0
 54 56  1  0  0  0
 54 55  1  0  0  0
 56 57  1  0  0  0
 57 58  1  0  0  0
 58 59  1  0  0  0
M  END
> <minimizedAffinity>
-8.16285

> <CNNscore>
0.2481306493

> <CNNaffinity>
5.7433323860

> <CNN_VS>
1.4250967503

> <CNNaffinity_variance>
0.4191488624

$$$$



 59 61  0  0  0  0  0  0  0  0999 V2000
  -10.4058   22.2722    0.1794 P   0  0  0  0  0  0  0  0  0  0  0  0
   -9.7282   21.1614   -0.5946 O   0  0  0  0  0  0  0  0  0  0  0  0
  -11.0743   23.3747   -0.9239 O   0  0  0  0  0  0  0  0  0  0  0  0
  -10.5291   24.1983   -0.8311 H   0  0  0  0  0  0  0  0  0  0  0  0
   -9.2844   23.0623    1.2048 O   0  0  0  0  0  0  0  0  0  0  0  0
   -7.9789   22.8468    0.7151 C   0  0  0  0  0  0  0  0  0  0  0  0
   -7.1225   22.1496    1.7778 C   0  0  0  0  0  0  0  0  0  0  0  0
   -7.5901   20.8446    2.0090 O   0  0  0  0  0  0  0  0  0  0  0  0
   -6.4883   20.0830    2.4609 C   0  0  0  0  0  0  0  0  0  0  0  0
   -5.1958   20.8868    2.2432 C   0  0  0  0  0  0  0  0  0  0  0  0
   -4.6816   21.3309    3.4737 O   0  0  0  0  0  0  0  0  0  0  0  0
   -5.6499   22.0597    1.3992 C   0  0  0  0  0  0  0  0  0  0  0  0
   -4.2498   20.5450    3.8995 H   0  0  0  0  0  0  0  0  0  0  0  0
   -6.4228   18.8097    1.7350 N   0  0  0  0  0  0  0  0  0  0  0  0
   -5.4227   18.3318    0.9496 C   0  0  0  0  0  0  0  0  0  0  0  0
   -5.6848   17.1005    0.4262 N   0  0  0  0  0  0  0  0  0  0  0  0
   -6.9077   16.8253    0.9160 C   0  0  0  0  0  0  0  0  0  0  0  0
   -7.7207   15.7157    0.7037 C   0  0  0  0  0  0  0  0  0  0  0  0
   -7.2946   14.6172   -0.1004 N   0  0  0  0  0  0  0  0  0  0  0  0
   -8.9549   15.7108    1.2902 N   0  0  0  0  0  0  0  0  0  0  0  0
   -9.3844   16.7636    2.0601 C   0  0  0  0  0  0  0  0  0  0  0  0
   -8.5789   17.8497    2.2620 N   0  0  0  0  0  0  0  0  0  0  0  0
   -7.3480   17.8433    1.6891 C   0  0  0  0  0  0  0  0  0  0  0  0
   -6.3487   14.6118   -0.5434 H   0  0  0  0  0  0  0  0  0  0  0  0
   -7.9300   13.8031   -0.2578 H   0  0  0  0  0  0  0  0  0  0  0  0
   -4.9948   23.2671    1.7405 O   0  0  0  0  0  0  0  0  0  0  0  0
   -3.5857   23.4526    0.7924 P   0  0  0  0  0  0  0  0  0  0  0  0
   -3.8934   22.9999   -0.6145 O   0  0  0  0  0  0  0  0  0  0  0  0
   -2.3313   22.4829    1.4024 O   0  0  0  0  0  0  0  0  0  0  0  0
   -3.1223   25.0847    0.7362 O   0  0  0  0  0  0  0  0  0  0  0  0
   -1.7895   23.0812    1.9723 H   0  0  0  0  0  0  0  0  0  0  0  0
   -2.5178   25.2152    1.5078 H   0  0  0  0  0  0  0  0  0  0  0  0
  -11.6364   21.5835    1.1334 O   0  0  0  0  0  0  0  0  0  0  0  0
  -13.1471   22.1077    0.5339 P   0  0  0  0  0  0  0  0  0  0  0  0
  -14.2968   21.4773    1.2953 O   0  0  0  0  0  0  0  0  0  0  0  0
  -13.2336   23.7941    0.6803 O   0  0  0  0  0  0  0  0  0  0  0  0
  -14.1891   24.0004    0.8412 H   0  0  0  0  0  0  0  0  0  0  0  0
  -13.1882   21.6985   -1.1310 O   0  0  0  0  0  0  0  0  0  0  0  0
  -13.5758   20.3525   -1.3340 C   0  0  0  0  0  0  0  0  0  0  0  0
  -14.2135   19.3642   -3.5872 C   0  0  0  0  0  0  0  0  0  0  0  0
  -14.7032   20.2378   -2.4053 C   0  0  0  0  0  0  0  0  0  0  0  0
  -15.0356   21.6524   -2.9414 C   0  0  0  0  0  0  0  0  0  0  0  0
  -15.9552   19.5704   -1.7407 C   0  0  0  0  0  0  0  0  0  0  0  0
  -16.2950   20.2427   -0.5520 O   0  0  0  0  0  0  0  0  0  0  0  0
  -16.8934   19.6395   -0.0370 H   0  0  0  0  0  0  0  0  0  0  0  0
  -17.1550   19.5159   -2.6575 C   0  0  0  0  0  0  0  0  0  0  0  0
  -18.0063   20.4490   -2.6059 O   0  0  0  0  0  0  0  0  0  0  0  0
  -17.3396   18.4184   -3.5655 N   0  0  0  0  0  0  0  0  0  0  0  0
  -16.5633   17.7401   -3.7145 H   0  0  0  0  0  0  0  0  0  0  0  0
  -18.5834   18.2248   -4.3073 C   0  0  0  0  0  0  0  0  0  0  0  0
  -18.3157   18.2551   -5.8151 C   0  0  0  0  0  0  0  0  0  0  0  0
  -17.8931   19.6206   -6.2645 C   0  0  0  0  0  0  0  0  0  0  0  0
  -18.7169   20.5724   -6.2207 O   0  0  0  0  0  0  0  0  0  0  0  0
  -16.5506   19.8445   -6.7149 N   0  0  0  0  0  0  0  0  0  0  0  0
  -15.8335   19.1024   -6.5382 H   0  0  0  0  0  0  0  0  0  0  0  0
  -16.2051   20.9202   -7.6425 C   0  0  0  0  0  0  0  0  0  0  0  0
  -15.4924   22.0459   -6.8985 C   0  0  0  0  0  0  0  0  0  0  0  0
  -13.7262   21.6500   -6.6899 S   0  0  0  0  0  0  0  0  0  0  0  0
  -13.9956   20.6078   -5.7764 H   0  0  0  0  0  0  0  0  0  0  0  0
 40 41  1  0  0  0
 41 42  1  0  0  0
 41 39  1  0  0  0
 41 43  1  0  0  0
 39 38  1  0  0  0
 38 34  1  0  0  0
 34 35  2  0  0  0
 34 36  1  0  0  0
 34 33  1  0  0  0
 36 37  1  0  0  0
 33  1  1  0  0  0
  1  2  2  0  0  0
  1  3  1  0  0  0
  1  5  1  0  0  0
  3  4  1  0  0  0
  5  6  1  0  0  0
  6  7  1  0  0  0
  7  8  1  0  0  0
  7 12  1  0  0  0
  8  9  1  0  0  0
  9 14  1  0  0  0
  9 10  1  0  0  0
 14 15  1  0  0  0
 14 23  1  0  0  0
 15 16  2  0  0  0
 16 17  1  0  0  0
 17 18  2  0  0  0
 17 23  1  0  0  0
 18 19  1  0  0  0
 18 20  1  0  0  0
 19 24  1  0  0  0
 19 25  1  0  0  0
 20 21  2  0  0  0
 21 22  1  0  0  0
 22 23  2  0  0  0
 10 11  1  0  0  0
 10 12  1  0  0  0
 11 13  1  0  0  0
 12 26  1  0  0  0
 26 27  1  0  0  0
 27 28  2  0  0  0
 27 29  1  0  0  0
 27 30  1  0  0  0
 29 31  1  0  0  0
 30 32  1  0  0  0
 43 44  1  0  0  0
 43 46  1  0  0  0
 44 45  1  0  0  0
 46 47  2  0  0  0
 46 48  1  0  0  0
 48 50  1  0  0  0
 48 49  1  0  0  0
 50 51  1  0  0  0
 51 52  1  0  0  0
 52 53  2  0  0  0
 52 54  1  0  0  0
 54 56  1  0  0  0
 54 55  1  0  0  0
 56 57  1  0  0  0
 57 58  1  0  0  0
 58 59  1  0  0  0
M  END
> <minimizedAffinity>
-7.32012

> <CNNscore>
0.2142207325

> <CNNaffinity>
5.2905364037

> <CNN_VS>
1.1333426237

> <CNNaffinity_variance>
0.1350968778

$$$$



 59 61  0  0  0  0  0  0  0  0999 V2000
  -10.5142   22.6113    0.0184 P   0  0  0  0  0  0  0  0  0  0  0  0
  -11.4082   21.7451   -0.8435 O   0  0  0  0  0  0  0  0  0  0  0  0
   -9.8746   23.8565   -0.9408 O   0  0  0  0  0  0  0  0  0  0  0  0
   -8.9074   23.6515   -1.0219 H   0  0  0  0  0  0  0  0  0  0  0  0
   -9.2511   21.6788    0.7028 O   0  0  0  0  0  0  0  0  0  0  0  0
   -8.1401   22.5136    0.9466 C   0  0  0  0  0  0  0  0  0  0  0  0
   -7.1765   21.8400    1.9297 C   0  0  0  0  0  0  0  0  0  0  0  0
   -7.5785   20.5179    2.1861 O   0  0  0  0  0  0  0  0  0  0  0  0
   -6.4180   19.7926    2.5400 C   0  0  0  0  0  0  0  0  0  0  0  0
   -5.1759   20.6426    2.2255 C   0  0  0  0  0  0  0  0  0  0  0  0
   -4.5788   21.0965    3.4143 O   0  0  0  0  0  0  0  0  0  0  0  0
   -5.7374   21.8042    1.4320 C   0  0  0  0  0  0  0  0  0  0  0  0
   -4.0870   20.3235    3.7963 H   0  0  0  0  0  0  0  0  0  0  0  0
   -6.3680   18.5270    1.7995 N   0  0  0  0  0  0  0  0  0  0  0  0
   -5.3669   18.0383    1.0222 C   0  0  0  0  0  0  0  0  0  0  0  0
   -5.6463   16.8190    0.4801 N   0  0  0  0  0  0  0  0  0  0  0  0
   -6.8814   16.5629    0.9493 C   0  0  0  0  0  0  0  0  0  0  0  0
   -7.7137   15.4729    0.7121 C   0  0  0  0  0  0  0  0  0  0  0  0
   -7.2986   14.3756   -0.0995 N   0  0  0  0  0  0  0  0  0  0  0  0
   -8.9559   15.4862    1.2812 N   0  0  0  0  0  0  0  0  0  0  0  0
   -9.3749   16.5382    2.0579 C   0  0  0  0  0  0  0  0  0  0  0  0
   -8.5504   17.6051    2.2844 N   0  0  0  0  0  0  0  0  0  0  0  0
   -7.3120   17.5804    1.7287 C   0  0  0  0  0  0  0  0  0  0  0  0
   -6.3468   14.3562   -0.5293 H   0  0  0  0  0  0  0  0  0  0  0  0
   -7.9481   13.5767   -0.2758 H   0  0  0  0  0  0  0  0  0  0  0  0
   -5.0987   23.0316    1.7302 O   0  0  0  0  0  0  0  0  0  0  0  0
   -3.7352   23.2380    0.7215 P   0  0  0  0  0  0  0  0  0  0  0  0
   -3.3375   24.6940    0.7477 O   0  0  0  0  0  0  0  0  0  0  0  0
   -4.1160   22.8177   -0.8799 O   0  0  0  0  0  0  0  0  0  0  0  0
   -2.4293   22.3197    1.2987 O   0  0  0  0  0  0  0  0  0  0  0  0
   -3.8091   21.8847   -0.9872 H   0  0  0  0  0  0  0  0  0  0  0  0
   -2.5128   21.4365    0.8619 H   0  0  0  0  0  0  0  0  0  0  0  0
  -11.4581   23.2687    1.2736 O   0  0  0  0  0  0  0  0  0  0  0  0
  -12.5790   24.3637    0.5951 P   0  0  0  0  0  0  0  0  0  0  0  0
  -12.2475   25.7973    0.9611 O   0  0  0  0  0  0  0  0  0  0  0  0
  -12.5514   24.1936   -1.0911 O   0  0  0  0  0  0  0  0  0  0  0  0
  -12.7504   25.0934   -1.4545 H   0  0  0  0  0  0  0  0  0  0  0  0
  -14.1288   23.9045    1.1677 O   0  0  0  0  0  0  0  0  0  0  0  0
  -14.3329   22.5070    1.0744 C   0  0  0  0  0  0  0  0  0  0  0  0
  -16.6959   23.2922    1.5841 C   0  0  0  0  0  0  0  0  0  0  0  0
  -15.8481   22.1574    0.9568 C   0  0  0  0  0  0  0  0  0  0  0  0
  -16.1253   20.8467    1.7339 C   0  0  0  0  0  0  0  0  0  0  0  0
  -16.2083   22.0086   -0.5607 C   0  0  0  0  0  0  0  0  0  0  0  0
  -16.7148   23.2210   -1.0645 O   0  0  0  0  0  0  0  0  0  0  0  0
  -17.1764   23.0111   -1.9191 H   0  0  0  0  0  0  0  0  0  0  0  0
  -15.0413   21.5523   -1.4051 C   0  0  0  0  0  0  0  0  0  0  0  0
  -14.4420   22.3990   -2.1277 O   0  0  0  0  0  0  0  0  0  0  0  0
  -14.6227   20.1784   -1.4032 N   0  0  0  0  0  0  0  0  0  0  0  0
  -15.0149   19.5239   -0.6941 H   0  0  0  0  0  0  0  0  0  0  0  0
  -13.6455   19.6628   -2.3592 C   0  0  0  0  0  0  0  0  0  0  0  0
  -14.3559   19.0246   -3.5567 C   0  0  0  0  0  0  0  0  0  0  0  0
  -13.8974   19.6321   -4.8474 C   0  0  0  0  0  0  0  0  0  0  0  0
  -12.6687   19.8324   -5.0385 O   0  0  0  0  0  0  0  0  0  0  0  0
  -14.8515   19.9562   -5.8672 N   0  0  0  0  0  0  0  0  0  0  0  0
  -15.8261   19.5845   -5.7764 H   0  0  0  0  0  0  0  0  0  0  0  0
  -14.6079   20.9958   -6.8655 C   0  0  0  0  0  0  0  0  0  0  0  0
  -15.1040   20.5361   -8.2334 C   0  0  0  0  0  0  0  0  0  0  0  0
  -14.6092   21.7267   -9.5208 S   0  0  0  0  0  0  0  0  0  0  0  0
  -15.4857   22.7218   -9.0362 H   0  0  0  0  0  0  0  0  0  0  0  0
 40 41  1  0  0  0
 41 42  1  0  0  0
 41 39  1  0  0  0
 41 43  1  0  0  0
 39 38  1  0  0  0
 38 34  1  0  0  0
 34 35  2  0  0  0
 34 36  1  0  0  0
 34 33  1  0  0  0
 36 37  1  0  0  0
 33  1  1  0  0  0
  1  2  2  0  0  0
  1  3  1  0  0  0
  1  5  1  0  0  0
  3  4  1  0  0  0
  5  6  1  0  0  0
  6  7  1  0  0  0
  7  8  1  0  0  0
  7 12  1  0  0  0
  8  9  1  0  0  0
  9 14  1  0  0  0
  9 10  1  0  0  0
 14 15  1  0  0  0
 14 23  1  0  0  0
 15 16  2  0  0  0
 16 17  1  0  0  0
 17 18  2  0  0  0
 17 23  1  0  0  0
 18 19  1  0  0  0
 18 20  1  0  0  0
 19 24  1  0  0  0
 19 25  1  0  0  0
 20 21  2  0  0  0
 21 22  1  0  0  0
 22 23  2  0  0  0
 10 11  1  0  0  0
 10 12  1  0  0  0
 11 13  1  0  0  0
 12 26  1  0  0  0
 26 27  1  0  0  0
 27 28  2  0  0  0
 27 29  1  0  0  0
 27 30  1  0  0  0
 29 31  1  0  0  0
 30 32  1  0  0  0
 43 44  1  0  0  0
 43 46  1  0  0  0
 44 45  1  0  0  0
 46 47  2  0  0  0
 46 48  1  0  0  0
 48 50  1  0  0  0
 48 49  1  0  0  0
 50 51  1  0  0  0
 51 52  1  0  0  0
 52 53  2  0  0  0
 52 54  1  0  0  0
 54 56  1  0  0  0
 54 55  1  0  0  0
 56 57  1  0  0  0
 57 58  1  0  0  0
 58 59  1  0  0  0
M  END
> <minimizedAffinity>
-7.84990

> <CNNscore>
0.2071945369

> <CNNaffinity>
5.4055747986

> <CNN_VS>
1.1200056076

> <CNNaffinity_variance>
0.3543726802

$$$$



 59 61  0  0  0  0  0  0  0  0999 V2000
   -4.9529   24.5279   -2.4646 P   0  0  0  0  0  0  0  0  0  0  0  0
   -6.1989   25.2691   -2.0284 O   0  0  0  0  0  0  0  0  0  0  0  0
   -5.4115   23.2289   -3.4555 O   0  0  0  0  0  0  0  0  0  0  0  0
   -5.2147   22.4146   -2.9243 H   0  0  0  0  0  0  0  0  0  0  0  0
   -4.0829   23.9596   -1.1032 O   0  0  0  0  0  0  0  0  0  0  0  0
   -4.2444   22.5616   -1.0020 C   0  0  0  0  0  0  0  0  0  0  0  0
   -5.5279   22.2305   -0.2327 C   0  0  0  0  0  0  0  0  0  0  0  0
   -6.1345   21.0774   -0.7595 O   0  0  0  0  0  0  0  0  0  0  0  0
   -6.8774   20.4845    0.2867 C   0  0  0  0  0  0  0  0  0  0  0  0
   -6.4980   21.1543    1.6177 C   0  0  0  0  0  0  0  0  0  0  0  0
   -7.5518   21.9630    2.0774 O   0  0  0  0  0  0  0  0  0  0  0  0
   -5.2948   21.9997    1.2546 C   0  0  0  0  0  0  0  0  0  0  0  0
   -8.2343   21.3495    2.4558 H   0  0  0  0  0  0  0  0  0  0  0  0
   -6.6042   19.0443    0.3470 N   0  0  0  0  0  0  0  0  0  0  0  0
   -5.4625   18.3834    0.0227 C   0  0  0  0  0  0  0  0  0  0  0  0
   -5.5461   17.0347    0.2030 N   0  0  0  0  0  0  0  0  0  0  0  0
   -6.8043   16.8739    0.6526 C   0  0  0  0  0  0  0  0  0  0  0  0
   -7.4875   15.7072    0.9830 C   0  0  0  0  0  0  0  0  0  0  0  0
   -6.8606   14.4275    0.9176 N   0  0  0  0  0  0  0  0  0  0  0  0
   -8.7925   15.8234    1.3715 N   0  0  0  0  0  0  0  0  0  0  0  0
   -9.4140   17.0463    1.4317 C   0  0  0  0  0  0  0  0  0  0  0  0
   -8.7348   18.1868    1.1042 N   0  0  0  0  0  0  0  0  0  0  0  0
   -7.4343   18.0675    0.7329 C   0  0  0  0  0  0  0  0  0  0  0  0
   -5.8608   14.3340    0.6301 H   0  0  0  0  0  0  0  0  0  0  0  0
   -7.3999   13.5650    1.1550 H   0  0  0  0  0  0  0  0  0  0  0  0
   -5.2726   23.2419    1.9326 O   0  0  0  0  0  0  0  0  0  0  0  0
   -3.6796   23.6030    2.4337 P   0  0  0  0  0  0  0  0  0  0  0  0
   -2.8042   22.4087    2.1402 O   0  0  0  0  0  0  0  0  0  0  0  0
   -3.6386   23.8962    4.1065 O   0  0  0  0  0  0  0  0  0  0  0  0
   -3.0747   24.9313    1.5670 O   0  0  0  0  0  0  0  0  0  0  0  0
   -3.6817   24.8785    4.2027 H   0  0  0  0  0  0  0  0  0  0  0  0
   -3.3301   25.7291    2.0924 H   0  0  0  0  0  0  0  0  0  0  0  0
   -3.9682   25.6079   -3.3380 O   0  0  0  0  0  0  0  0  0  0  0  0
   -3.6529   26.9703   -2.3580 P   0  0  0  0  0  0  0  0  0  0  0  0
   -4.3731   28.2025   -2.8700 O   0  0  0  0  0  0  0  0  0  0  0  0
   -4.1683   26.6339   -0.7787 O   0  0  0  0  0  0  0  0  0  0  0  0
   -4.4662   27.5011   -0.4037 H   0  0  0  0  0  0  0  0  0  0  0  0
   -1.9520   27.1885   -2.3455 O   0  0  0  0  0  0  0  0  0  0  0  0
   -1.2620   25.9658   -2.5248 C   0  0  0  0  0  0  0  0  0  0  0  0
    1.2206   25.7200   -2.0386 C   0  0  0  0  0  0  0  0  0  0  0  0
   -0.1950   25.7430   -1.4096 C   0  0  0  0  0  0  0  0  0  0  0  0
   -0.4549   24.3765   -0.7284 C   0  0  0  0  0  0  0  0  0  0  0  0
   -0.2954   26.9214   -0.3821 C   0  0  0  0  0  0  0  0  0  0  0  0
   -1.4109   26.7449    0.4574 O   0  0  0  0  0  0  0  0  0  0  0  0
   -1.5928   27.6216    0.8884 H   0  0  0  0  0  0  0  0  0  0  0  0
    0.9521   27.0870    0.4542 C   0  0  0  0  0  0  0  0  0  0  0  0
    1.2497   26.1884    1.2921 O   0  0  0  0  0  0  0  0  0  0  0  0
    1.7836   28.2499    0.3154 N   0  0  0  0  0  0  0  0  0  0  0  0
    1.6216   28.9042   -0.4787 H   0  0  0  0  0  0  0  0  0  0  0  0
    2.8693   28.5442    1.2478 C   0  0  0  0  0  0  0  0  0  0  0  0
    4.1162   27.7302    0.8888 C   0  0  0  0  0  0  0  0  0  0  0  0
    4.6368   26.9810    2.0775 C   0  0  0  0  0  0  0  0  0  0  0  0
    3.8405   26.6270    2.9869 O   0  0  0  0  0  0  0  0  0  0  0  0
    6.0283   26.6468    2.1623 N   0  0  0  0  0  0  0  0  0  0  0  0
    6.6218   26.7559    1.3067 H   0  0  0  0  0  0  0  0  0  0  0  0
    6.7056   26.4324    3.4399 C   0  0  0  0  0  0  0  0  0  0  0  0
    6.8842   27.7613    4.1684 C   0  0  0  0  0  0  0  0  0  0  0  0
    5.8849   27.7892    5.6917 S   0  0  0  0  0  0  0  0  0  0  0  0
    4.6683   27.8290    4.9764 H   0  0  0  0  0  0  0  0  0  0  0  0
 40 41  1  0  0  0
 41 42  1  0  0  0
 41 39  1  0  0  0
 41 43  1  0  0  0
 39 38  1  0  0  0
 38 34  1  0  0  0
 34 35  2  0  0  0
 34 36  1  0  0  0
 34 33  1  0  0  0
 36 37  1  0  0  0
 33  1  1  0  0  0
  1  2  2  0  0  0
  1  3  1  0  0  0
  1  5  1  0  0  0
  3  4  1  0  0  0
  5  6  1  0  0  0
  6  7  1  0  0  0
  7  8  1  0  0  0
  7 12  1  0  0  0
  8  9  1  0  0  0
  9 14  1  0  0  0
  9 10  1  0  0  0
 14 15  1  0  0  0
 14 23  1  0  0  0
 15 16  2  0  0  0
 16 17  1  0  0  0
 17 18  2  0  0  0
 17 23  1  0  0  0
 18 19  1  0  0  0
 18 20  1  0  0  0
 19 24  1  0  0  0
 19 25  1  0  0  0
 20 21  2  0  0  0
 21 22  1  0  0  0
 22 23  2  0  0  0
 10 11  1  0  0  0
 10 12  1  0  0  0
 11 13  1  0  0  0
 12 26  1  0  0  0
 26 27  1  0  0  0
 27 28  2  0  0  0
 27 29  1  0  0  0
 27 30  1  0  0  0
 29 31  1  0  0  0
 30 32  1  0  0  0
 43 44  1  0  0  0
 43 46  1  0  0  0
 44 45  1  0  0  0
 46 47  2  0  0  0
 46 48  1  0  0  0
 48 50  1  0  0  0
 48 49  1  0  0  0
 50 51  1  0  0  0
 51 52  1  0  0  0
 52 53  2  0  0  0
 52 54  1  0  0  0
 54 56  1  0  0  0
 54 55  1  0  0  0
 56 57  1  0  0  0
 57 58  1  0  0  0
 58 59  1  0  0  0
M  END
> <minimizedAffinity>
-7.44892

> <CNNscore>
0.1798223555

> <CNNaffinity>
5.2183027267

> <CNN_VS>
0.9383674860

> <CNNaffinity_variance>
0.2909365594

$$$$



 59 61  0  0  0  0  0  0  0  0999 V2000
   -3.9194   24.3953   -2.4971 P   0  0  0  0  0  0  0  0  0  0  0  0
   -5.0167   25.1076   -3.2593 O   0  0  0  0  0  0  0  0  0  0  0  0
   -2.6695   24.0080   -3.5775 O   0  0  0  0  0  0  0  0  0  0  0  0
   -2.6926   23.0196   -3.6583 H   0  0  0  0  0  0  0  0  0  0  0  0
   -4.5258   22.9757   -1.7552 O   0  0  0  0  0  0  0  0  0  0  0  0
   -5.9225   23.0973   -1.5970 C   0  0  0  0  0  0  0  0  0  0  0  0
   -6.3295   22.7164   -0.1693 C   0  0  0  0  0  0  0  0  0  0  0  0
   -7.1064   21.5453   -0.1742 O   0  0  0  0  0  0  0  0  0  0  0  0
   -6.9234   20.9207    1.0805 C   0  0  0  0  0  0  0  0  0  0  0  0
   -5.7536   21.5964    1.8149 C   0  0  0  0  0  0  0  0  0  0  0  0
   -6.2292   22.3645    2.8918 O   0  0  0  0  0  0  0  0  0  0  0  0
   -5.1400   22.4861    0.7537 C   0  0  0  0  0  0  0  0  0  0  0  0
   -6.4567   21.7250    3.6162 H   0  0  0  0  0  0  0  0  0  0  0  0
   -6.6502   19.4908    0.8979 N   0  0  0  0  0  0  0  0  0  0  0  0
   -5.5753   18.9008    0.3133 C   0  0  0  0  0  0  0  0  0  0  0  0
   -5.6356   17.5387    0.3157 N   0  0  0  0  0  0  0  0  0  0  0  0
   -6.8097   17.2959    0.9269 C   0  0  0  0  0  0  0  0  0  0  0  0
   -7.4385   16.0832    1.1935 C   0  0  0  0  0  0  0  0  0  0  0  0
   -6.8347   14.8357    0.8557 N   0  0  0  0  0  0  0  0  0  0  0  0
   -8.6670   16.1222    1.7905 N   0  0  0  0  0  0  0  0  0  0  0  0
   -9.2666   17.3143    2.1145 C   0  0  0  0  0  0  0  0  0  0  0  0
   -8.6415   18.5005    1.8476 N   0  0  0  0  0  0  0  0  0  0  0  0
   -7.4147   18.4560    1.2677 C   0  0  0  0  0  0  0  0  0  0  0  0
   -5.8919   14.8000    0.4076 H   0  0  0  0  0  0  0  0  0  0  0  0
   -7.3344   13.9395    1.0515 H   0  0  0  0  0  0  0  0  0  0  0  0
   -4.6896   23.7246    1.2699 O   0  0  0  0  0  0  0  0  0  0  0  0
   -3.1100   23.5531    1.8982 P   0  0  0  0  0  0  0  0  0  0  0  0
   -2.5281   22.2597    1.3814 O   0  0  0  0  0  0  0  0  0  0  0  0
   -3.1540   23.4781    3.5948 O   0  0  0  0  0  0  0  0  0  0  0  0
   -2.1226   24.8289    1.3698 O   0  0  0  0  0  0  0  0  0  0  0  0
   -2.9657   24.3974    3.9039 H   0  0  0  0  0  0  0  0  0  0  0  0
   -2.2238   25.5409    2.0485 H   0  0  0  0  0  0  0  0  0  0  0  0
   -3.3409   25.4460   -1.2889 O   0  0  0  0  0  0  0  0  0  0  0  0
   -2.0514   26.3603   -1.9349 P   0  0  0  0  0  0  0  0  0  0  0  0
   -0.7705   25.5512   -1.9938 O   0  0  0  0  0  0  0  0  0  0  0  0
   -2.4716   26.8618   -3.4985 O   0  0  0  0  0  0  0  0  0  0  0  0
   -1.6218   26.8958   -4.0065 H   0  0  0  0  0  0  0  0  0  0  0  0
   -1.8810   27.7473   -0.9410 O   0  0  0  0  0  0  0  0  0  0  0  0
   -0.6971   27.6993   -0.1667 C   0  0  0  0  0  0  0  0  0  0  0  0
   -0.9681   29.6346    1.4584 C   0  0  0  0  0  0  0  0  0  0  0  0
   -0.2024   29.1293    0.2101 C   0  0  0  0  0  0  0  0  0  0  0  0
   -0.4919   30.0905   -0.9693 C   0  0  0  0  0  0  0  0  0  0  0  0
    1.3306   29.0585    0.5259 C   0  0  0  0  0  0  0  0  0  0  0  0
    2.0427   29.9435   -0.3048 O   0  0  0  0  0  0  0  0  0  0  0  0
    2.9976   29.6711   -0.2699 H   0  0  0  0  0  0  0  0  0  0  0  0
    1.6517   29.3470    1.9739 C   0  0  0  0  0  0  0  0  0  0  0  0
    1.9454   30.5295    2.3108 O   0  0  0  0  0  0  0  0  0  0  0  0
    1.6396   28.2978    2.9548 N   0  0  0  0  0  0  0  0  0  0  0  0
    1.2474   27.3660    2.7040 H   0  0  0  0  0  0  0  0  0  0  0  0
    2.1483   28.4957    4.3101 C   0  0  0  0  0  0  0  0  0  0  0  0
    2.9118   27.2539    4.7800 C   0  0  0  0  0  0  0  0  0  0  0  0
    4.2971   27.2197    4.2099 C   0  0  0  0  0  0  0  0  0  0  0  0
    4.4596   26.9751    2.9851 O   0  0  0  0  0  0  0  0  0  0  0  0
    5.4262   27.4917    5.0504 N   0  0  0  0  0  0  0  0  0  0  0  0
    5.2564   27.9020    5.9986 H   0  0  0  0  0  0  0  0  0  0  0  0
    6.7611   26.9707    4.7614 C   0  0  0  0  0  0  0  0  0  0  0  0
    7.6667   28.0944    4.2653 C   0  0  0  0  0  0  0  0  0  0  0  0
    8.0397   29.2537    5.6205 S   0  0  0  0  0  0  0  0  0  0  0  0
    6.7130   29.7341    5.6686 H   0  0  0  0  0  0  0  0  0  0  0  0
 40 41  1  0  0  0
 41 42  1  0  0  0
 41 39  1  0  0  0
 41 43  1  0  0  0
 39 38  1  0  0  0
 38 34  1  0  0  0
 34 35  2  0  0  0
 34 36  1  0  0  0
 34 33  1  0  0  0
 36 37  1  0  0  0
 33  1  1  0  0  0
  1  2  2  0  0  0
  1  3  1  0  0  0
  1  5  1  0  0  0
  3  4  1  0  0  0
  5  6  1  0  0  0
  6  7  1  0  0  0
  7  8  1  0  0  0
  7 12  1  0  0  0
  8  9  1  0  0  0
  9 14  1  0  0  0
  9 10  1  0  0  0
 14 15  1  0  0  0
 14 23  1  0  0  0
 15 16  2  0  0  0
 16 17  1  0  0  0
 17 18  2  0  0  0
 17 23  1  0  0  0
 18 19  1  0  0  0
 18 20  1  0  0  0
 19 24  1  0  0  0
 19 25  1  0  0  0
 20 21  2  0  0  0
 21 22  1  0  0  0
 22 23  2  0  0  0
 10 11  1  0  0  0
 10 12  1  0  0  0
 11 13  1  0  0  0
 12 26  1  0  0  0
 26 27  1  0  0  0
 27 28  2  0  0  0
 27 29  1  0  0  0
 27 30  1  0  0  0
 29 31  1  0  0  0
 30 32  1  0  0  0
 43 44  1  0  0  0
 43 46  1  0  0  0
 44 45  1  0  0  0
 46 47  2  0  0  0
 46 48  1  0  0  0
 48 50  1  0  0  0
 48 49  1  0  0  0
 50 51  1  0  0  0
 51 52  1  0  0  0
 52 53  2  0  0  0
 52 54  1  0  0  0
 54 56  1  0  0  0
 54 55  1  0  0  0
 56 57  1  0  0  0
 57 58  1  0  0  0
 58 59  1  0  0  0
M  END
> <minimizedAffinity>
-7.11966

> <CNNscore>
0.1654627323

> <CNNaffinity>
5.1456422806

> <CNN_VS>
0.8514120579

> <CNNaffinity_variance>
0.1598892361

$$$$



 59 61  0  0  0  0  0  0  0  0999 V2000
   12.9540  -20.0746    6.2272 P   0  0  0  0  0  0  0  0  0  0  0  0
   11.4499  -20.2143    6.1258 O   0  0  0  0  0  0  0  0  0  0  0  0
   13.4034  -20.2006    7.8587 O   0  0  0  0  0  0  0  0  0  0  0  0
   13.7122  -19.2931    8.1141 H   0  0  0  0  0  0  0  0  0  0  0  0
   13.4637  -18.5713    5.5840 O   0  0  0  0  0  0  0  0  0  0  0  0
   14.0436  -17.8006    6.6138 C   0  0  0  0  0  0  0  0  0  0  0  0
   13.3552  -16.4344    6.7052 C   0  0  0  0  0  0  0  0  0  0  0  0
   13.1856  -15.8813    5.4244 O   0  0  0  0  0  0  0  0  0  0  0  0
   12.0683  -15.0179    5.4899 C   0  0  0  0  0  0  0  0  0  0  0  0
   11.3293  -15.2486    6.8184 C   0  0  0  0  0  0  0  0  0  0  0  0
   11.5218  -14.1566    7.6823 O   0  0  0  0  0  0  0  0  0  0  0  0
   11.9886  -16.4933    7.3752 C   0  0  0  0  0  0  0  0  0  0  0  0
   10.9307  -13.4295    7.3546 H   0  0  0  0  0  0  0  0  0  0  0  0
   11.1689  -15.2689    4.3582 N   0  0  0  0  0  0  0  0  0  0  0  0
   10.7854  -16.4592    3.8277 C   0  0  0  0  0  0  0  0  0  0  0  0
    9.9283  -16.3333    2.7749 N   0  0  0  0  0  0  0  0  0  0  0  0
    9.7938  -14.9991    2.6612 C   0  0  0  0  0  0  0  0  0  0  0  0
    9.0648  -14.2552    1.7381 C   0  0  0  0  0  0  0  0  0  0  0  0
    8.2654  -14.8804    0.7355 N   0  0  0  0  0  0  0  0  0  0  0  0
    9.1414  -12.8931    1.8172 N   0  0  0  0  0  0  0  0  0  0  0  0
    9.9128  -12.2750    2.7703 C   0  0  0  0  0  0  0  0  0  0  0  0
   10.6262  -13.0144    3.6722 N   0  0  0  0  0  0  0  0  0  0  0  0
   10.5353  -14.3670    3.5985 C   0  0  0  0  0  0  0  0  0  0  0  0
    8.1962  -15.9209    0.6763 H   0  0  0  0  0  0  0  0  0  0  0  0
    7.7404  -14.2997    0.0438 H   0  0  0  0  0  0  0  0  0  0  0  0
   12.1441  -16.4492    8.7813 O   0  0  0  0  0  0  0  0  0  0  0  0
   11.1660  -17.6441    9.5126 P   0  0  0  0  0  0  0  0  0  0  0  0
   12.0667  -18.6751   10.1486 O   0  0  0  0  0  0  0  0  0  0  0  0
   10.2086  -18.4205    8.3436 O   0  0  0  0  0  0  0  0  0  0  0  0
   10.2035  -16.9557   10.7297 O   0  0  0  0  0  0  0  0  0  0  0  0
    9.3329  -17.9640    8.3752 H   0  0  0  0  0  0  0  0  0  0  0  0
    9.3707  -16.6705   10.2794 H   0  0  0  0  0  0  0  0  0  0  0  0
   13.6681  -21.3311    5.3273 O   0  0  0  0  0  0  0  0  0  0  0  0
   13.2465  -21.1312    3.6846 P   0  0  0  0  0  0  0  0  0  0  0  0
   12.5880  -22.3765    3.1238 O   0  0  0  0  0  0  0  0  0  0  0  0
   12.1769  -19.8228    3.5541 O   0  0  0  0  0  0  0  0  0  0  0  0
   11.5783  -20.0407    2.7955 H   0  0  0  0  0  0  0  0  0  0  0  0
   14.6914  -20.7446    2.8458 O   0  0  0  0  0  0  0  0  0  0  0  0
   15.7909  -21.5051    3.3107 C   0  0  0  0  0  0  0  0  0  0  0  0
   17.9963  -22.2964    2.3259 C   0  0  0  0  0  0  0  0  0  0  0  0
   16.4567  -22.3126    2.1547 C   0  0  0  0  0  0  0  0  0  0  0  0
   16.1031  -21.6438    0.8032 C   0  0  0  0  0  0  0  0  0  0  0  0
   15.9359  -23.7890    2.2147 C   0  0  0  0  0  0  0  0  0  0  0  0
   15.1416  -23.9815    3.3603 O   0  0  0  0  0  0  0  0  0  0  0  0
   15.0690  -24.9622    3.5031 H   0  0  0  0  0  0  0  0  0  0  0  0
   15.1618  -24.1953    0.9823 C   0  0  0  0  0  0  0  0  0  0  0  0
   15.7212  -24.9393    0.1270 O   0  0  0  0  0  0  0  0  0  0  0  0
   13.8170  -23.7365    0.7720 N   0  0  0  0  0  0  0  0  0  0  0  0
   13.3114  -23.2583    1.5469 H   0  0  0  0  0  0  0  0  0  0  0  0
   13.1195  -23.9312   -0.4970 C   0  0  0  0  0  0  0  0  0  0  0  0
   12.0371  -22.8631   -0.6801 C   0  0  0  0  0  0  0  0  0  0  0  0
   10.8540  -23.1320    0.1992 C   0  0  0  0  0  0  0  0  0  0  0  0
   10.7071  -24.2729    0.7122 O   0  0  0  0  0  0  0  0  0  0  0  0
    9.9122  -22.0869    0.4750 N   0  0  0  0  0  0  0  0  0  0  0  0
   10.1678  -21.1038    0.2214 H   0  0  0  0  0  0  0  0  0  0  0  0
    8.5207  -22.3603    0.8298 C   0  0  0  0  0  0  0  0  0  0  0  0
    8.2505  -21.9244    2.2670 C   0  0  0  0  0  0  0  0  0  0  0  0
    6.4899  -22.1502    2.6782 S   0  0  0  0  0  0  0  0  0  0  0  0
    6.0820  -21.1140    1.8102 H   0  0  0  0  0  0  0  0  0  0  0  0
 40 41  1  0  0  0
 41 42  1  0  0  0
 41 39  1  0  0  0
 41 43  1  0  0  0
 39 38  1  0  0  0
 38 34  1  0  0  0
 34 35  2  0  0  0
 34 36  1  0  0  0
 34 33  1  0  0  0
 36 37  1  0  0  0
 33  1  1  0  0  0
  1  2  2  0  0  0
  1  3  1  0  0  0
  1  5  1  0  0  0
  3  4  1  0  0  0
  5  6  1  0  0  0
  6  7  1  0  0  0
  7  8  1  0  0  0
  7 12  1  0  0  0
  8  9  1  0  0  0
  9 14  1  0  0  0
  9 10  1  0  0  0
 14 15  1  0  0  0
 14 23  1  0  0  0
 15 16  2  0  0  0
 16 17  1  0  0  0
 17 18  2  0  0  0
 17 23  1  0  0  0
 18 19  1  0  0  0
 18 20  1  0  0  0
 19 24  1  0  0  0
 19 25  1  0  0  0
 20 21  2  0  0  0
 21 22  1  0  0  0
 22 23  2  0  0  0
 10 11  1  0  0  0
 10 12  1  0  0  0
 11 13  1  0  0  0
 12 26  1  0  0  0
 26 27  1  0  0  0
 27 28  2  0  0  0
 27 29  1  0  0  0
 27 30  1  0  0  0
 29 31  1  0  0  0
 30 32  1  0  0  0
 43 44  1  0  0  0
 43 46  1  0  0  0
 44 45  1  0  0  0
 46 47  2  0  0  0
 46 48  1  0  0  0
 48 50  1  0  0  0
 48 49  1  0  0  0
 50 51  1  0  0  0
 51 52  1  0  0  0
 52 53  2  0  0  0
 52 54  1  0  0  0
 54 56  1  0  0  0
 54 55  1  0  0  0
 56 57  1  0  0  0
 57 58  1  0  0  0
 58 59  1  0  0  0
M  END
> <minimizedAffinity>
-6.39922

> <CNNscore>
0.1403374970

> <CNNaffinity>
5.1901369095

> <CNN_VS>
0.7283708453

> <CNNaffinity_variance>
0.9013697505

$$$$



 59 61  0  0  0  0  0  0  0  0999 V2000
  -11.0355  -21.1562  -15.2293 P   0  0  0  0  0  0  0  0  0  0  0  0
   -9.8563  -21.1715  -16.1789 O   0  0  0  0  0  0  0  0  0  0  0  0
  -10.7418  -20.0071  -14.0157 O   0  0  0  0  0  0  0  0  0  0  0  0
  -10.6043  -20.5341  -13.1865 H   0  0  0  0  0  0  0  0  0  0  0  0
  -11.2714  -22.7052  -14.5377 O   0  0  0  0  0  0  0  0  0  0  0  0
  -10.0448  -23.4023  -14.5358 C   0  0  0  0  0  0  0  0  0  0  0  0
  -10.2171  -24.7801  -15.1847 C   0  0  0  0  0  0  0  0  0  0  0  0
  -10.2154  -24.6687  -16.5856 O   0  0  0  0  0  0  0  0  0  0  0  0
   -9.7563  -25.9029  -17.0995 C   0  0  0  0  0  0  0  0  0  0  0  0
   -9.1795  -26.7452  -15.9497 C   0  0  0  0  0  0  0  0  0  0  0  0
  -10.0339  -27.8215  -15.6542 O   0  0  0  0  0  0  0  0  0  0  0  0
   -9.1283  -25.7701  -14.7918 C   0  0  0  0  0  0  0  0  0  0  0  0
   -9.8918  -28.4986  -16.3661 H   0  0  0  0  0  0  0  0  0  0  0  0
   -8.7319  -25.6736  -18.1244 N   0  0  0  0  0  0  0  0  0  0  0  0
   -7.9036  -24.6070  -18.2718 C   0  0  0  0  0  0  0  0  0  0  0  0
   -7.0601  -24.7179  -19.3372 N   0  0  0  0  0  0  0  0  0  0  0  0
   -7.4021  -25.9089  -19.8623 C   0  0  0  0  0  0  0  0  0  0  0  0
   -6.9099  -26.5561  -20.9919 C   0  0  0  0  0  0  0  0  0  0  0  0
   -5.8559  -25.9990  -21.7753 N   0  0  0  0  0  0  0  0  0  0  0  0
   -7.4749  -27.7518  -21.3359 N   0  0  0  0  0  0  0  0  0  0  0  0
   -8.4961  -28.2982  -20.5981 C   0  0  0  0  0  0  0  0  0  0  0  0
   -8.9736  -27.6543  -19.4906 N   0  0  0  0  0  0  0  0  0  0  0  0
   -8.3990  -26.4738  -19.1447 C   0  0  0  0  0  0  0  0  0  0  0  0
   -5.4144  -25.0899  -21.5116 H   0  0  0  0  0  0  0  0  0  0  0  0
   -5.5152  -26.4966  -22.6282 H   0  0  0  0  0  0  0  0  0  0  0  0
   -9.4549  -26.3720  -13.5531 O   0  0  0  0  0  0  0  0  0  0  0  0
   -8.2468  -26.0180  -12.3979 P   0  0  0  0  0  0  0  0  0  0  0  0
   -8.9015  -25.3564  -11.2094 O   0  0  0  0  0  0  0  0  0  0  0  0
   -7.1061  -24.9397  -13.0474 O   0  0  0  0  0  0  0  0  0  0  0  0
   -7.5010  -27.4474  -11.8665 O   0  0  0  0  0  0  0  0  0  0  0  0
   -6.3605  -25.5050  -13.3646 H   0  0  0  0  0  0  0  0  0  0  0  0
   -6.7450  -27.5979  -12.4858 H   0  0  0  0  0  0  0  0  0  0  0  0
  -12.4263  -20.7282  -16.1131 O   0  0  0  0  0  0  0  0  0  0  0  0
  -12.8145  -19.1026  -15.7629 P   0  0  0  0  0  0  0  0  0  0  0  0
  -13.9634  -18.6079  -16.6198 O   0  0  0  0  0  0  0  0  0  0  0  0
  -13.2432  -18.9872  -14.1271 O   0  0  0  0  0  0  0  0  0  0  0  0
  -13.9186  -18.2641  -14.0775 H   0  0  0  0  0  0  0  0  0  0  0  0
  -11.3885  -18.1859  -16.0224 O   0  0  0  0  0  0  0  0  0  0  0  0
  -11.1737  -17.9221  -17.3962 C   0  0  0  0  0  0  0  0  0  0  0  0
   -9.2859  -16.7154  -18.5964 C   0  0  0  0  0  0  0  0  0  0  0  0
   -9.6567  -17.9625  -17.7554 C   0  0  0  0  0  0  0  0  0  0  0  0
   -9.3714  -19.2296  -18.5990 C   0  0  0  0  0  0  0  0  0  0  0  0
   -8.8300  -17.9646  -16.4245 C   0  0  0  0  0  0  0  0  0  0  0  0
   -7.8589  -18.9826  -16.4532 O   0  0  0  0  0  0  0  0  0  0  0  0
   -7.5595  -19.1262  -15.5167 H   0  0  0  0  0  0  0  0  0  0  0  0
   -8.1698  -16.6368  -16.1344 C   0  0  0  0  0  0  0  0  0  0  0  0
   -8.8974  -15.6187  -15.9553 O   0  0  0  0  0  0  0  0  0  0  0  0
   -6.7392  -16.5222  -16.0755 N   0  0  0  0  0  0  0  0  0  0  0  0
   -6.1557  -17.3850  -16.0674 H   0  0  0  0  0  0  0  0  0  0  0  0
   -6.0657  -15.2273  -16.0107 C   0  0  0  0  0  0  0  0  0  0  0  0
   -5.6819  -14.8973  -14.5651 C   0  0  0  0  0  0  0  0  0  0  0  0
   -4.5237  -13.9480  -14.5136 C   0  0  0  0  0  0  0  0  0  0  0  0
   -4.1974  -13.4241  -13.4156 O   0  0  0  0  0  0  0  0  0  0  0  0
   -3.7767  -13.6618  -15.7033 N   0  0  0  0  0  0  0  0  0  0  0  0
   -3.9252  -14.2669  -16.5447 H   0  0  0  0  0  0  0  0  0  0  0  0
   -3.0378  -12.4133  -15.8825 C   0  0  0  0  0  0  0  0  0  0  0  0
   -3.4392  -11.7502  -17.1970 C   0  0  0  0  0  0  0  0  0  0  0  0
   -5.2518  -11.7520  -17.3811 S   0  0  0  0  0  0  0  0  0  0  0  0
   -5.3034  -13.1528  -17.5504 H   0  0  0  0  0  0  0  0  0  0  0  0
 40 41  1  0  0  0
 41 42  1  0  0  0
 41 39  1  0  0  0
 41 43  1  0  0  0
 39 38  1  0  0  0
 38 34  1  0  0  0
 34 35  2  0  0  0
 34 36  1  0  0  0
 34 33  1  0  0  0
 36 37  1  0  0  0
 33  1  1  0  0  0
  1  2  2  0  0  0
  1  3  1  0  0  0
  1  5  1  0  0  0
  3  4  1  0  0  0
  5  6  1  0  0  0
  6  7  1  0  0  0
  7  8  1  0  0  0
  7 12  1  0  0  0
  8  9  1  0  0  0
  9 14  1  0  0  0
  9 10  1  0  0  0
 14 15  1  0  0  0
 14 23  1  0  0  0
 15 16  2  0  0  0
 16 17  1  0  0  0
 17 18  2  0  0  0
 17 23  1  0  0  0
 18 19  1  0  0  0
 18 20  1  0  0  0
 19 24  1  0  0  0
 19 25  1  0  0  0
 20 21  2  0  0  0
 21 22  1  0  0  0
 22 23  2  0  0  0
 10 11  1  0  0  0
 10 12  1  0  0  0
 11 13  1  0  0  0
 12 26  1  0  0  0
 26 27  1  0  0  0
 27 28  2  0  0  0
 27 29  1  0  0  0
 27 30  1  0  0  0
 29 31  1  0  0  0
 30 32  1  0  0  0
 43 44  1  0  0  0
 43 46  1  0  0  0
 44 45  1  0  0  0
 46 47  2  0  0  0
 46 48  1  0  0  0
 48 50  1  0  0  0
 48 49  1  0  0  0
 50 51  1  0  0  0
 51 52  1  0  0  0
 52 53  2  0  0  0
 52 54  1  0  0  0
 54 56  1  0  0  0
 54 55  1  0  0  0
 56 57  1  0  0  0
 57 58  1  0  0  0
 58 59  1  0  0  0
M  END
> <minimizedAffinity>
-6.30755

> <CNNscore>
0.1385626197

> <CNNaffinity>
4.9794073105

> <CNN_VS>
0.6899597049

> <CNNaffinity_variance>
0.1309520155

$$$$
